         300
  Built with Packmol                                             
  H            1.572696        7.391747       25.644436
  H            0.000475        7.208961       26.046366
  O            0.831878        7.736600       26.220961
  H            9.243145        5.768136       15.769888
  H            9.241783        4.348421       16.576885
  O            8.997836        5.316923       16.627994
  H            2.891106        6.666801       15.790521
  H            1.726563        5.522132       15.770290
  O            2.713126        5.682775       15.802001
  H            9.242384        4.634692       22.369036
  H            8.713472        3.889190       21.015775
  O            8.955887        4.770919       21.420628
  H            3.196701        0.000221       37.088027
  H            2.007032        1.115420       36.999406
  O            2.210940        0.150384       37.164466
  H            5.797516        6.732109       32.399177
  H            7.035244        7.735403       32.757320
  O            6.791638        6.839936       32.384608
  H            0.044025        6.966256       34.302408
  H            1.223514        6.028363       33.673125
  O            1.013667        6.727573       34.356637
  H            6.795166        7.736319       36.863285
  H            5.236356        7.735346       37.350059
  O            5.968330        7.181081       36.953673
  H            4.359163        1.422538       20.875836
  H            3.545433        0.008896       20.955194
  O            3.508968        0.985143       21.169043
  H            9.139130        1.281362       34.182800
  H            7.992354        1.119741       33.031444
  O            8.907754        1.470913       33.228519
  H            9.238398        7.736416       29.520468
  H            9.241928        6.111093       29.361884
  O            8.664132        6.926395       29.401300
  H            4.485600        1.874192       33.543245
  H            3.799418        1.855811       32.061471
  O            3.667033        2.110319       33.019499
  H            5.198774        6.245281       24.920654
  H            4.107662        6.438701       26.120195
  O            4.489047        5.791734       25.459819
  H            0.000068        7.734700       16.749096
  H            1.625078        7.735537       16.910895
  O            0.827361        7.176569       16.684354
  H            0.036408        4.152099       23.164209
  H            0.000044        5.455414       22.180908
  O            0.559820        4.693023       22.505759
  H            8.978375        4.394295       34.488041
  H            8.475175        3.082720       35.320746
  O            9.242495        3.704067       35.161794
  H            9.124938        0.219129       30.067774
  H            9.127590        0.001565       31.686259
  O            9.242035        0.671020       30.952194
  H            6.400770        3.768163       28.498822
  H            5.257828        4.094755       29.618581
  O            6.230702        4.168870       29.399171
  H            0.299800        3.779892       31.055900
  H            0.005531        4.533975       32.474209
  O            0.720528        4.215356       31.851812
  H            5.349814        1.746891       37.196744
  H            5.362878        0.178075       36.743443
  O            5.400926        1.122632       36.417126
  H            3.556260        7.736618       24.430254
  H            3.423639        7.736711       22.802603
  O            3.996450        7.462510       23.575143
  H            1.830456        2.570036       38.908488
  H            1.933102        0.950946       39.095158
  O            1.308353        1.731181       39.062912
  H            6.843069        5.183421       21.103768
  H            6.355874        4.680922       22.579224
  O            6.168015        5.315725       21.829657
  H            4.756191        5.841035       16.569816
  H            6.203092        5.128074       16.314867
  O            5.271260        5.231672       15.966909
  H            6.254045        4.519812       32.863839
  H            7.653102        3.931573       32.260971
  O            7.250716        4.598302       32.888406
  H            9.242717        6.893078       21.081161
  H            8.127690        7.517644       20.064564
  O            8.809262        7.736280       20.762974
  H            2.761179        0.927540       34.940085
  H            2.222117        0.000674       33.708352
  O            3.036494        0.362166       34.162480
  H            0.000244        6.748977       19.922781
  H            1.086796        7.736291       19.207623
  O            0.114475        7.519626       19.295751
  H            0.001115        0.000871       17.847163
  H            1.471968        0.710314       17.858019
  O            0.485722        0.875294       17.872796
  H            3.952580        0.084460       39.096531
  H            5.579708        0.000324       38.986025
  O            4.786685        0.605462       38.915029
  H            6.829622        7.736580       23.807939
  H            5.902221        7.694813       22.464429
  O            6.840734        7.730835       22.807959
  H            1.594513        2.228235       23.083693
  H            3.197960        2.007216       23.300360
  O            2.462607        2.684655       23.279169
  H            8.877109        5.467289       31.320598
  H            8.400001        4.338391       30.241342
  O            9.172220        4.682431       30.775599
  H            7.676437        6.717499       18.088162
  H            9.242661        7.130290       17.879884
  O            8.302367        7.470773       17.885910
  H            6.037200        1.896063       31.654357
  H            7.478304        2.150919       30.929717
  O            6.723771        1.504213       31.041830
  H            1.065129        0.000155       30.920885
  H            0.809462        1.609167       31.032913
  O            0.582449        0.717152       31.423927
  H            9.031000        0.900129       20.524730
  H            9.241681        2.017898       19.352961
  O            8.821257        1.836169       20.241969
  H            0.308347        1.560607       15.842609
  H            0.791595        0.000914       15.816815
  O            0.001085        0.611682       15.770177
  H            4.949600        7.736642       27.587585
  H            4.226786        6.507268       28.383209
  O            4.112202        7.442667       28.048519
  H            7.834901        0.909735       18.233966
  H            9.177291        0.060073       17.855944
  O            8.251353        0.000526       18.229053
  H            1.631918        7.736584       28.875689
  H            0.000692        7.735990       28.952755
  O            0.794318        7.398810       28.446212
  H            3.498041        6.845320       30.498310
  H            4.755528        7.736627       29.958742
  O            3.769167        7.732012       30.123629
  H            0.596148        3.307111       36.424196
  H            1.558115        2.721712       35.241502
  O            0.763947        3.296740       35.438370
  H            1.172305        3.376874       24.865081
  H            0.000619        2.239529       24.885961
  O            0.952289        2.435862       25.122386
  H            8.428411        0.064748       36.326948
  H            9.235796        1.349627       36.930314
  O            9.239031        0.354011       36.836201
  H            5.698981        3.005238       16.492912
  H            4.477398        2.197155       15.770711
  O            4.782234        3.090005       16.102392
  H            1.386867        6.870231       22.764535
  H            0.000198        7.591948       22.292190
  O            0.970786        7.735774       22.485558
  H            9.242272        0.000909       22.951211
  H            8.279237        1.309784       22.789206
  O            8.303305        0.337618       23.022513
  H            0.476741        7.735686       30.983515
  H            0.000848        6.716537       32.167448
  O            0.273316        7.656007       31.959417
  H            2.620587        5.037378       37.364159
  H            2.054539        5.672373       35.970170
  O            2.253627        4.822900       36.458921
  H            2.583529        0.214395       29.636112
  H            3.671177        0.000209       30.835270
  O            2.931232        0.582584       30.498466
  H            0.000358        3.192650       27.586187
  H            1.507281        2.836355       28.104910
  O            0.932080        3.541031       27.689344
  H            4.693639        7.735053       15.770448
  H            5.953172        7.691744       16.808974
  O            5.690921        7.735482       15.844904
  H            9.242590        6.831237       26.722644
  H            8.137288        7.735590       27.514659
  O            8.821377        7.736104       26.785180
  H            0.000226        1.325692       35.599459
  H            0.944836        0.000582       35.462956
  O            0.001517        0.330856       35.497401
  H            2.397189        0.230879       22.849316
  H            1.409899        0.810695       21.684881
  O            1.659478        0.000113       22.214772
  H            0.362980        6.977554       37.602382
  H            0.757343        5.436473       37.971686
  O            0.000014        6.074849       37.833673
  H            3.509478        5.844765       33.377285
  H            4.377655        7.062898       34.032462
  O            4.354003        6.078219       33.859357
  H            7.442497        7.735764       39.093377
  H            6.108715        6.793508       39.097411
  O            6.442448        7.736238       39.097665
  H            2.815982        0.014095       15.770052
  H            3.362874        0.882881       17.040074
  O            3.412686        0.000282       16.572467
  H            4.013973        6.462230       36.114685
  H            5.154239        5.346729       35.764990
  O            4.217889        5.483533       36.088489
  H            8.509269        6.396431       23.338104
  H            9.242817        7.736311       23.915567
  O            9.153027        6.745683       24.019069
  H            8.680809        7.736510       35.658846
  H            9.209903        6.367363       36.374620
  O            9.233616        7.366659       36.405659
  H            8.388258        0.001065       25.334935
  H            9.242148        1.262913       24.747188
  O            9.134450        0.640026       25.522128
  H            1.102138        6.071941       30.066526
  H            0.002153        5.111789       29.335103
  O            0.126282        5.877726       29.966016
  H            6.371824        1.991370       23.845779
  H            5.097816        3.006598       23.731541
  O            5.402040        2.061484       23.611858
  H            5.240368        0.044647       27.357494
  H            4.596580        0.002704       28.857698
  O            5.409907        0.235557       28.324410
  H            0.001560        0.602087       26.173068
  H            1.296141        0.000503       26.966158
  O            0.876370        0.831119       26.600114
  H            8.209567        0.154172       38.770239
  H            7.161186        1.404331       38.839779
  O            7.600320        0.739614       38.235270
  H            6.851697        0.002145       19.873375
  H            5.684059        0.740765       19.002801
  O            5.885687        0.260320       19.856403
  H            4.703378        1.212665       25.490661
  H            3.679765        0.006514       25.085381
  O            3.880773        0.713618       25.763406
  H            7.691531        4.395134       26.935658
  H            9.242355        4.587761       27.409657
  O            8.332988        5.003839       27.402698
  H            8.794988        2.573627       15.769795
  H            9.098483        2.414404       17.366471
  O            8.418167        2.275300       16.646791
  H            7.376799        0.780913       28.973469
  H            7.432369        0.045125       27.516636
  O            7.754546        0.008573       28.462671
  H            1.526889        2.556295       33.248599
  H            0.001103        2.290253       32.730877
  O            0.560389        2.592241       33.502966
  H            8.864846        7.731046       15.832152
  H            7.527507        6.795847       15.770798
  O            7.865464        7.736739       15.795829
  H            0.181014        0.731287       23.471696
  H            1.095296        0.000432       24.610457
  O            0.205688        0.000184       24.153602
  H            7.492695        2.228901       27.392957
  H            8.981710        1.559622       27.434592
  O            8.466888        2.412195       27.525118
  H            9.220161        7.720981       32.620544
  H            9.241896        6.348924       33.505882
  O            9.099909        7.338374       33.536660
  H            0.000585        3.947216       18.227679
  H            0.839122        5.314495       18.534665
  O            0.349339        4.546818       18.948070
  H            4.616131        7.247285       18.436727
  H            3.062044        7.736536       18.325896
  O            3.702813        7.161826       18.835054
  H            2.484207        4.956209       28.084598
  H            2.240656        6.438380       27.443748
  O            1.843242        5.530072       27.574733
  H            0.000474        0.122020       39.096366
  H            0.000078        0.786178       37.604478
  O            0.296278        0.001209       38.148726
  H            2.796819        4.943305       30.912580
  H            3.659729        4.091215       32.006274
  O            3.716696        4.743072       31.249996
  H            2.949610        2.456171       19.107035
  H            4.267672        3.232174       18.534875
  O            3.934991        2.386037       18.951400
  H            7.201712        6.352433       26.160709
  H            6.610342        6.259738       27.680092
  O            6.419707        6.070653       26.716752
  H            8.845285        3.200285       25.444788
  H            8.037106        3.786595       24.152533
  O            8.160301        2.991641       24.746661
  H            2.187024        6.266588       39.097591
  H            1.476095        7.736662       39.080299
  O            2.351125        7.252636       39.067657
  H            9.242457        6.809082       38.824254
  H            9.241628        5.176084       38.811980
  O            8.714408        5.991088       39.052654
  H            6.744455        7.583301       29.814974
  H            6.004995        6.216280       30.316261
  O            6.877208        6.703471       30.271475
  H            0.664347        3.667876       16.170370
  H            1.469795        2.710688       17.220075
  O            1.539600        3.514499       16.629200
  H            3.323251        7.735635       32.438574
  H            2.093094        6.794631       31.920826
  O            2.412176        7.736545       32.026193
  H            4.378100        3.607957       25.762881
  H            2.910105        4.316207       25.863920
  O            3.398820        3.443885       25.882080
  H            9.233236        0.621202       15.769800
  H            7.652030        0.494085       16.157700
  O            8.450786       -0.000018       15.814233
  H            0.084430        1.800573       20.258875
  H            0.000107        3.075211       21.276238
  O            0.617005        2.431837       20.822778
  H            0.000231        1.841000       29.218685
  H            0.000677        0.208462       29.177972
  O            0.113022        1.038882       28.632169
  H            5.420630        0.097138       22.387410
  H            6.389389        1.234553       21.728145
  O            6.369548        0.359235       22.211406
  H            7.270244        5.349030       35.223662
  H            6.472201        6.634777       34.609808
  O            7.054572        6.316295       35.357825
  H            3.415962        2.715622       29.109667
  H            4.878935        2.199384       28.599722
  O            3.985681        1.910509       28.944349
  H            9.027630        5.094149       18.615355
  H            8.075057        3.778616       18.785102
  O            9.006677        4.129789       18.879339
