         192
  Built with Packmol                                             
  H            6.429200        7.417121       16.335577
  H            7.263149        6.028773       16.126160
  O            7.342289        7.011172       16.295710
  H            1.178028        7.714014       18.989076
  H            0.001958        7.732860       20.121921
  O            0.220850        7.492775       19.176108
  H            1.556730        1.427863       23.081446
  H            0.000091        1.043831       23.391657
  O            0.947112        0.728875       23.455475
  H            4.980993        3.760563       17.803203
  H            5.249726        5.117726       16.935605
  O            4.578904        4.619013       17.484605
  H            1.522650        4.299109       18.202545
  H            0.000427        3.772989       17.932596
  O            0.571045        4.581002       18.079659
  H            6.706025        6.046891       27.098416
  H            5.798911        5.164936       26.065878
  O            6.021822        5.320905       27.028220
  H            0.302196        1.335923       16.150280
  H            0.260893        1.275384       17.781680
  O            0.000094        1.809697       16.977558
  H            5.182546        6.631609       22.541741
  H            4.984261        7.735157       21.354433
  O            5.269068        7.598978       22.303358
  H            4.338199        0.002258       26.110678
  H            3.391821        0.167187       27.431286
  O            4.046956        0.629159       26.833374
  H            8.436220        6.930386       19.869849
  H            7.401355        7.721905       20.854423
  O            8.315392        7.736734       20.448918
  H            6.662409        3.965104       15.770946
  H            7.394666        2.944476       16.814475
  O            6.669058        3.032495       16.131933
  H            9.239909        3.015438       24.810172
  H            9.179804        1.395382       25.006753
  O            8.653716        2.244287       25.058810
  H            7.678514        2.642516       27.162094
  H            9.237294        3.128083       27.197657
  O            8.285892        3.432871       27.243006
  H            5.009389        5.453917       28.947826
  H            5.217269        6.983363       28.414518
  O            4.541421        6.277839       28.628021
  H            8.442019        0.594883       19.531646
  H            6.885469        0.539937       19.040762
  O            7.715230        0.001031       19.186344
  H            9.121028        4.268397       17.095531
  H            9.242159        5.214319       15.769863
  O            8.945377        4.322905       16.112529
  H            1.482891        3.375008       22.071498
  H            0.082725        3.656089       21.279435
  O            1.073922        3.787053       21.257201
  H            3.778469        5.365233       21.399344
  H            2.313718        5.403707       22.120357
  O            3.279219        5.644711       22.219562
  H            6.274924        2.751229       29.252122
  H            4.743316        3.317808       29.251883
  O            5.308788        2.492970       29.252038
  H            7.976564        0.732642       21.687527
  H            9.240327        1.309618       22.545920
  O            8.740271        0.484271       22.283496
  H            0.002471        0.381517       28.947214
  H            1.491671        1.048203       29.015413
  O            0.529788        1.171743       29.259619
  H            7.509677        2.392083       19.467636
  H            5.906159        2.699632       19.498939
  O            6.817018        3.112443       19.505340
  H            4.421452        1.740026       15.848114
  H            4.553026        3.365911       15.770513
  O            3.912000        2.598526       15.788506
  H            0.134906        0.014933       26.418489
  H            0.369604        1.630817       26.444389
  O            0.725631        0.748954       26.753710
  H            0.676541        3.798341       26.357022
  H            0.823120        5.424765       26.366832
  O            0.174747        4.663372       26.363380
  H            4.650183        3.545136       22.228325
  H            4.058473        2.195459       22.931950
  O            3.856658        3.143453       22.685585
  H            2.349072        1.239768       16.813907
  H            1.996083        0.000285       17.816861
  O            2.054062        0.285327       16.860040
  H            1.807512        7.734197       24.952350
  H            1.626610        6.497408       23.901415
  O            2.188769        7.288670       24.142248
  H            7.746764        4.910044       24.283672
  H            6.553856        6.012995       24.118431
  O            7.321318        5.719503       24.688502
  H            0.015133        4.636015       15.989524
  H            0.000087        6.254141       15.769801
  O            0.581702        5.442026       15.817882
  H            8.228382        0.940081       17.443193
  H            9.231708        2.143600       16.983068
  O            9.167083        1.165731       17.182351
  H            6.393590        3.010325       24.230995
  H            5.007357        3.865907       24.345771
  O            6.002903        3.929829       24.275624
  H            1.997527        7.665764       16.993893
  H            0.367402        7.736716       17.060942
  O            1.160215        7.734403       16.451385
  H            7.455311        3.807288       22.596482
  H            9.047660        3.455257       22.682112
  O            8.131289        3.070759       22.570117
  H            7.912195        5.599325       18.334633
  H            6.409033        6.230413       18.429853
  O            6.952053        5.396261       18.527006
  H            0.000518        0.531600       21.269083
  H            1.533352        0.000198       21.455806
  O            0.759692        0.056012       20.824576
  H            2.379418        0.237179       25.015137
  H            2.131590        1.845501       25.151949
  O            2.826087        1.127527       25.103929
  H            9.236699        6.864923       28.594410
  H            7.889304        7.608255       28.047766
  O            8.850315        7.736653       28.292897
  H            7.556729        4.484243       29.012657
  H            7.090780        6.029964       29.258572
  O            7.877166        5.419973       29.160464
  H            6.333129        2.313104       21.619356
  H            5.862597        0.771355       21.357732
  O            5.552262        1.719757       21.423645
  H            0.202699        2.981641       24.385278
  H            0.002220        4.556428       24.002277
  O            0.000015        3.622465       23.644751
  H            6.291242        6.022293       20.845542
  H            5.584004        4.578043       20.561303
  O            6.457762        5.058852       20.635378
  H            9.241887        6.237788       24.272084
  H            9.242500        7.736668       23.623861
  O            8.668735        6.960641       23.885955
  H            2.242702        4.409350       24.066695
  H            3.269362        4.369607       25.336035
  O            2.313376        4.475225       25.062075
  H            4.161837        0.531171       20.028176
  H            3.222401        1.280021       21.134304
  O            3.424251        0.406176       20.691848
  H            3.751317        6.095344       26.584232
  H            3.022862        7.341956       27.347220
  O            3.120125        6.863256       26.474577
  H            7.970309        0.025106       27.877652
  H            9.092095        0.975411       27.166770
  O            8.768194        0.035449       27.274834
  H            8.607092        6.984653       26.124638
  H            8.696305        5.377898       26.402515
  O            9.228030        6.215071       26.273956
  H            4.101326        6.700235       17.893923
  H            4.195528        7.736639       16.635420
  O            3.908905        6.821808       16.920111
  H            2.833748        7.718678       21.065923
  H            1.559573        7.730840       22.087278
  O            1.836189        7.683815       21.127387
  H            7.254206        0.393486       15.772488
  H            5.668988        0.006315       15.835886
  O            6.531760        0.000624       16.341564
  H            3.705398        4.380697       19.452493
  H            3.151370        3.428288       20.657817
  O            3.421460        3.453028       19.695239
  H            0.770280        2.040249       19.989037
  H            2.011314        1.892292       18.937953
  O            1.491697        2.533441       19.502792
  H            2.182256        3.795178       15.961307
  H            3.225919        5.047831       15.869301
  O            2.383614        4.716360       16.294468
  H            9.243069        6.721188       21.900839
  H            8.405422        5.331490       21.716655
  O            9.233443        5.741138       22.099652
  H            5.571939        3.188895       27.270810
  H            4.864665        2.457351       25.993531
  O            5.656576        2.988685       26.294660
  H            6.563393        0.017346       23.072478
  H            7.452547        1.035344       23.988949
  O            7.257116        0.074853       23.790501
  H            4.248875        1.103824       17.913109
  H            5.726384        1.715633       17.582211
  O            5.205080        0.875111       17.730137
  H            0.677089        4.068881       29.259624
  H            0.003130        2.992058       28.233433
  O            0.848172        3.466827       28.479638
  H            9.242310        4.400124       19.684147
  H            9.240178        3.001140       20.526570
  O            8.773737        3.875974       20.395360
  H            2.534306        2.409211       27.652524
  H            3.364146        3.815464       27.678068
  O            3.445074        2.820633       27.615792
  H            2.197344        5.874624       19.985084
  H            0.716385        5.853879       20.672955
  O            1.219875        5.748745       19.815306
  H            4.480962        6.003744       24.518380
  H            5.156566        7.435318       24.919615
  O            4.311448        6.982344       24.635525
  H            6.594884        0.000895       25.857712
  H            6.190181        1.047589       27.044086
  O            6.364446        0.951929       26.063984
