         300
  Built with Packmol                                             
  H            1.233452        7.733024       27.168630
  H            0.531240        6.587947       26.239902
  O            0.518067        7.035051       27.134354
  H            3.484107        4.468924       23.239486
  H            2.241408        3.586026       22.653801
  O            2.691143        4.478942       22.630204
  H            2.562218        6.526425       16.075498
  H            0.943292        6.312142       16.076050
  O            1.828522        5.846861       16.075543
  H            9.242995        5.505616       21.641486
  H            9.151894        3.888227       21.435112
  O            8.997589        4.776551       21.002459
  H            5.720299        1.178695       36.805826
  H            4.618933        0.000336       36.550293
  O            5.592901        0.226258       36.528788
  H            5.947059        3.349553       36.696948
  H            6.945965        4.637380       36.799539
  O            6.902130        3.645582       36.678982
  H            2.383438        4.021153       35.278063
  H            3.366510        5.067773       36.055876
  O            2.484961        4.596757       36.089537
  H            2.909061        3.472336       39.538949
  H            2.842042        3.676138       41.157840
  O            2.356024        3.322454       40.358583
  H            2.344715        0.255283       20.552070
  H            3.155025        0.524024       19.159946
  O            3.146539        0.000001       20.011676
  H            9.242336        2.587101       33.118456
  H            7.990356        3.021991       32.164384
  O            8.980115        2.883324       32.199975
  H            9.192099        5.813875       27.726655
  H            9.240562        4.203176       27.991488
  O            8.642710        5.002081       27.924842
  H            5.466424        3.551323       28.651260
  H            3.848675        3.770513       28.610275
  O            4.578806        3.094022       28.707161
  H            2.605678        5.958801       26.446479
  H            3.684989        7.085209       25.963644
  O            2.717941        6.830443       25.969244
  H            0.036073        6.160229       18.168267
  H            0.000079        7.725350       17.703578
  O            0.592667        6.970762       17.985630
  H            6.165702        3.350827       22.405931
  H            5.386317        4.769374       22.188862
  O            5.288311        3.774169       22.179919
  H            7.763567        4.443599       38.828841
  H            9.242987        3.754036       38.777290
  O            8.260129        3.575540       38.824704
  H            6.084624        1.085387       30.127757
  H            6.899121        2.485311       30.336664
  O            6.472676        1.881434       29.663170
  H            2.474497        5.542892       28.598948
  H            1.514062        6.788177       29.039022
  O            2.461273        6.485097       28.933896
  H            1.391996        3.750480       33.337988
  H            2.644071        2.721117       33.139097
  O            1.890014        3.188487       32.677489
  H            3.881016        2.482263       37.622900
  H            2.249362        2.480932       37.690270
  O            3.044028        2.756979       37.149510
  H            5.740029        7.735520       26.086034
  H            5.593458        6.542807       24.980236
  O            6.208762        7.234544       25.358416
  H            5.037004        3.345587       41.321540
  H            6.487553        2.696771       40.945000
  O            5.609203        2.528480       41.392546
  H            6.338912        4.657642       24.346871
  H            5.155434        3.532401       24.339952
  O            5.349302        4.513477       24.344823
  H            5.321683        4.560407       16.517338
  H            5.817894        6.113353       16.612031
  O            6.119900        5.161849       16.552455
  H            8.107020        5.579783       31.763874
  H            7.279583        4.899749       30.531098
  O            8.171121        4.962296       30.979835
  H            7.285814        7.705391       23.472468
  H            8.220307        6.750075       24.411048
  O            8.075262        7.684657       24.086032
  H            3.221258        1.300714       35.516657
  H            4.391687        2.436875       35.438748
  O            3.496075        2.161893       35.088916
  H            0.063731        6.699136       20.263656
  H            1.311230        7.735744       20.453464
  O            0.315308        7.655895       20.410072
  H            3.546419        1.924651       20.613321
  H            3.481390        3.556270       20.592677
  O            4.089971        2.763821       20.634771
  H            6.952545        1.648042       38.548812
  H            5.486869        2.146378       39.068707
  O            6.397213        2.446064       38.783083
  H            7.856066        4.465627       22.917810
  H            7.002226        5.850676       22.778411
  O            7.395110        5.079695       22.277064
  H            1.300268        2.509799       27.651458
  H            2.601578        1.634460       28.106659
  O            2.106056        2.492277       28.243501
  H            8.328844        7.736669       31.695277
  H            9.168831        7.714133       30.295008
  O            9.242860        7.690829       31.292051
  H            8.444832        6.360130       19.860080
  H            9.242107        7.734212       20.238348
  O            8.339547        7.319284       20.122863
  H            5.019618        2.693865       33.225482
  H            6.411666        1.844632       33.136923
  O            5.597799        2.133299       32.632533
  H            0.528602        1.619732       31.900421
  H            1.063737        0.217357       31.257139
  O            1.339173        1.066576       31.707783
  H            8.554590        4.485666       25.011598
  H            9.236240        3.356351       25.974322
  O            9.187092        3.711583       25.040773
  H            2.878835        4.063822       16.697784
  H            3.628953        2.613255       16.701595
  O            2.743118        3.074546       16.752830
  H            6.811971        7.691603       30.122919
  H            5.791634        6.853982       31.084240
  O            6.239503        7.736709       30.941676
  H            4.684355        1.731466       22.466844
  H            3.163790        1.646556       23.056342
  O            3.956464        2.241937       22.924786
  H            2.057628        6.762544       31.162791
  H            3.330969        7.736483       31.474046
  O            2.385297        7.707312       31.150053
  H            4.395747        7.489673       21.410060
  H            2.892537        6.881203       21.602308
  O            3.844984        6.655031       21.397837
  H            0.290242        2.690653       38.620487
  H            0.259183        3.077201       37.034154
  O            0.000170        3.376195       37.952649
  H            0.000331        3.047223       29.746677
  H            0.000232        1.414331       29.769036
  O            0.576325        2.231287       29.797625
  H            2.896939        0.000105       40.407489
  H            4.211506        0.968996       40.406386
  O            3.896804        0.019743       40.406639
  H            5.633882        1.624401       16.812301
  H            6.732256        2.574233       16.065152
  O            5.756297        2.421857       16.221374
  H            0.889419        7.201890       22.589448
  H            0.557243        7.387663       24.177524
  O            0.326033        6.877177       23.349234
  H            9.235925        1.105456       25.588418
  H            9.240819        1.094638       23.955416
  O            8.787082        1.460230       24.768179
  H            0.000211        5.756733       30.797159
  H            0.341608        4.319667       31.493670
  O            0.495784        5.306678       31.540110
  H            1.348790        5.249674       38.214245
  H            0.176760        6.207098       37.600633
  O            0.896365        5.550436       37.374620
  H            4.269505        0.479944       33.388195
  H            5.487901        0.006713       34.367174
  O            4.840541        0.742014       34.166240
  H            0.370173        5.201795       28.149739
  H            0.008112        4.624680       26.665594
  O            0.659828        4.579118       27.422766
  H            3.944504        7.735328       17.173511
  H            2.852316        7.734669       18.387579
  O            3.821236        7.635097       18.160868
  H            8.174886        4.697034       33.746389
  H            7.190433        3.658688       34.533488
  O            7.537579        4.596279       34.510460
  H            0.092321        0.421050       33.694610
  H            1.603972        0.971772       33.974704
  O            0.991191        0.186620       34.065003
  H            1.657965        0.003831       24.898639
  H            3.231496        0.000634       24.461806
  O            2.584624        0.250698       25.182321
  H            0.002914        3.967436       40.376401
  H            0.000815        5.600452       40.385884
  O            0.552151        4.785666       40.206243
  H            2.163823        7.315528       33.892786
  H            1.071538        7.734135       35.032312
  O            2.022430        7.469940       34.870682
  H            6.368597        6.514007       41.200670
  H            7.447367        7.727735       41.027594
  O            7.341063        6.740060       41.142985
  H            4.111189        0.246853       16.066353
  H            2.572070        0.626197       16.458839
  O            3.483681        0.433818       16.822259
  H            4.118991        7.732611       38.461290
  H            3.353340        6.304682       38.257246
  O            3.284601        7.217961       38.658886
  H            6.352914        1.556919       18.890166
  H            4.744073        1.815379       18.782162
  O            5.601134        2.153693       19.170886
  H            5.462443        7.736163       36.732363
  H            6.778861        6.794481       36.515306
  O            6.444058        7.736476       36.541190
  H            7.228961        1.383893       35.233421
  H            8.270246        0.823298       34.107234
  O            8.159820        1.055056       35.073781
  H            4.072194        6.263323       32.853807
  H            3.386386        4.783570       32.936469
  O            3.219245        5.751707       32.749676
  H            5.058884        4.500492       30.736680
  H            3.872125        5.620460       30.672558
  O            4.076639        4.643259       30.614499
  H            4.082267        0.186830       30.149250
  H            3.222746        0.004039       31.525711
  O            4.094700        0.308115       31.141848
  H            0.000882        0.000105       26.534359
  H            1.540477        0.019781       27.078506
  O            0.776041        0.586209       26.770424
  H            8.566294        1.180500       40.329432
  H            7.585421        0.311455       41.303847
  O            7.617814        0.921225       40.511856
  H            7.503750        0.422296       20.330086
  H            5.896338        0.305410       20.593528
  O            6.798221        0.000317       20.899541
  H            4.082069        1.170605       26.455533
  H            4.062062        2.756771       26.067573
  O            3.505372        1.930681       26.155830
  H            8.078691        7.715441       27.722795
  H            7.290249        6.446832       27.062624
  O            7.742339        7.317634       26.869137
  H            4.318395        3.934294       18.322225
  H            4.386276        5.559259       18.174864
  O            4.242967        4.802511       18.812761
  H            5.920662        1.229737       27.634986
  H            6.130668        0.436096       26.223296
  O            6.204070        0.365979       27.218190
  H            0.370907        4.794916       35.388852
  H            0.112000        5.948450       34.262280
  O            0.000472        5.709624       35.226978
  H            5.432934        6.203745       19.968309
  H            6.225781        7.629835       19.901259
  O            6.332529        6.639837       19.994140
  H            0.007995        2.532380       22.566785
  H            0.150976        4.094941       23.019329
  O            0.236361        3.145877       23.322818
  H            7.614430        0.153526       28.872599
  H            9.242802        0.211156       28.981764
  O            8.401414        0.749196       29.033685
  H            7.679220        7.732004       33.783308
  H            8.596145        6.671894       34.621312
  O            7.852026        7.336927       34.685621
  H            1.162599        4.450718       18.157624
  H            2.202165        5.710061       18.171534
  O            1.833758        4.949448       18.706195
  H            4.161394        7.734709       23.919305
  H            2.692210        7.034993       23.782440
  O            3.672585        6.912452       23.627628
  H            0.896259        5.053716       24.804389
  H            2.300069        4.268562       25.086675
  O            1.872552        5.023812       24.589741
  H            0.000190        1.483399       40.544311
  H            1.031624        0.699067       39.550428
  O            0.759856        0.834291       40.503305
  H            5.589540        7.456049       34.504974
  H            4.206976        6.885180       35.160309
  O            5.131068        6.643165       34.864334
  H            7.787837        5.764571       17.898788
  H            7.176554        4.298468       18.277879
  O            7.231586        5.257200       18.557024
  H            2.762787        2.755879       30.324356
  H            4.249701        2.474688       30.938242
  O            3.269635        2.328218       31.072907
  H            7.736505        2.352427       21.234912
  H            7.272131        3.774739       20.580525
  O            7.216983        2.779873       20.494977
  H            2.209266        6.778217       40.523038
  H            0.815837        7.629752       40.531849
  O            1.813288        7.695752       40.561060
  H            7.479122        4.580948       41.391917
  H            8.920065        4.798201       40.654814
  O            8.347913        4.146886       41.153360
  H            6.227439        5.905724       28.884254
  H            4.758432        6.617237       28.833225
  O            5.241266        5.747270       28.933960
  H            0.000691        3.901773       20.849963
  H            1.530010        4.474128       20.829250
  O            0.563062        4.728722       20.846928
  H            6.056475        5.876543       38.372997
  H            7.491238        6.629623       38.575879
  O            6.656877        6.324852       39.035307
  H            4.400234        4.815799       26.752440
  H            6.027096        4.680042       26.710895
  O            5.262083        5.323062       26.748289
  H            8.594261        1.638026       16.719344
  H            7.507945        0.434110       16.912576
  O            8.443281        0.653077       16.634512
  H            2.359557        2.328110       18.824493
  H            0.822285        2.614039       19.295532
  O            1.778779        2.612126       19.587480
  H            0.652579        2.961999       25.550405
  H            1.670608        2.118430       24.591841
  O            0.829604        2.071587       25.130948
  H            6.213225        0.099698       23.571254
  H            6.676992        1.558026       24.141372
  O            6.997799        0.688718       23.765201
  H            6.385177        4.433646       32.480539
  H            5.419012        4.775392       33.751984
  O            5.965373        5.169020       33.012616
  H            7.278022        2.980170       27.215948
  H            6.239557        2.624442       26.006864
  O            7.203125        2.741142       26.247768
  H            9.129212        3.527463       17.701453
  H            8.482245        2.453495       18.747809
  O            9.242970        3.083231       18.590179
