112

Pt      0.000000000000000      0.000000000000000      0.000000000000000
Pt      2.810749455216527      0.000000000000000      0.000000000000000
Pt      5.621498910433053      0.000000000000000      0.000000000000000
Pt      8.432248365649579      0.000000000000000      0.000000000000000
Pt      1.405374727608263      2.434180431890783      0.000000000000000
Pt      4.216124182824790      2.434180431890783      0.000000000000000
Pt      7.026873638041317      2.434180431890783      0.000000000000000
Pt      9.837623093257843      2.434180431890783      0.000000000000000
Pt      0.000000000000000      4.868360863781566      0.000000000000000
Pt      2.810749455216527      4.868360863781566      0.000000000000000
Pt      5.621498910433053      4.868360863781566      0.000000000000000
Pt      8.432248365649579      4.868360863781566      0.000000000000000
Pt      1.405374727608263      7.302541295672349      0.000000000000000
Pt      4.216124182824790      7.302541295672349      0.000000000000000
Pt      7.026873638041317      7.302541295672349      0.000000000000000
Pt      9.837623093257843      7.302541295672349      0.000000000000000
Pt      1.405374727608263      0.811393477296928      2.294967320028762
Pt      4.216124182824790      0.811393477296928      2.294967320028762
Pt      7.026873638041317      0.811393477296928      2.294967320028762
Pt      9.837623093257843      0.811393477296928      2.294967320028762
Pt      0.000000000000000      3.245573909187711      2.294967320028762
Pt      2.810749455216527      3.245573909187711      2.294967320028762
Pt      5.621498910433053      3.245573909187711      2.294967320028762
Pt      8.432248365649579      3.245573909187711      2.294967320028762
Pt      1.405374727608263      5.679754341078494      2.294967320028762
Pt      4.216124182824790      5.679754341078494      2.294967320028762
Pt      7.026873638041317      5.679754341078494      2.294967320028762
Pt      9.837623093257843      5.679754341078494      2.294967320028762
Pt      0.000000000000000      8.113934772969278      2.294967320028762
Pt      2.810749455216527      8.113934772969278      2.294967320028762
Pt      5.621498910433053      8.113934772969278      2.294967320028762
Pt      8.432248365649579      8.113934772969278      2.294967320028762
Pt      0.000000000000000      1.622786954593855      4.589934640057525
Pt      2.810749455216527      1.622786954593855      4.589934640057525
Pt      5.621498910433053      1.622786954593855      4.589934640057525
Pt      8.432248365649579      1.622786954593855      4.589934640057525
Pt      1.405374727608263      4.056967386484638      4.589934640057525
Pt      4.216124182824790      4.056967386484638      4.589934640057525
Pt      7.026873638041317      4.056967386484638      4.589934640057525
Pt      9.837623093257843      4.056967386484638      4.589934640057525
Pt      0.000000000000000      6.491147818375421      4.589934640057525
Pt      2.810749455216527      6.491147818375421      4.589934640057525
Pt      5.621498910433053      6.491147818375421      4.589934640057525
Pt      8.432248365649579      6.491147818375421      4.589934640057525
Pt      1.405374727608263      8.925328250266205      4.589934640057525
Pt      4.216124182824790      8.925328250266205      4.589934640057525
Pt      7.026873638041317      8.925328250266205      4.589934640057525
Pt      9.837623093257843      8.925328250266205      4.589934640057525
Pt      0.000000000000000      0.000000000000000      6.884901960086287
Pt      2.810749455216527      0.000000000000000      6.884901960086287
Pt      5.621498910433053      0.000000000000000      6.884901960086287
Pt      8.432248365649579      0.000000000000000      6.884901960086287
Pt      1.405374727608263      2.434180431890783      6.884901960086287
Pt      4.216124182824790      2.434180431890783      6.884901960086287
Pt      7.026873638041317      2.434180431890783      6.884901960086287
Pt      9.837623093257843      2.434180431890783      6.884901960086287
Pt      0.000000000000000      4.868360863781566      6.884901960086287
Pt      2.810749455216527      4.868360863781566      6.884901960086287
Pt      5.621498910433053      4.868360863781566      6.884901960086287
Pt      8.432248365649579      4.868360863781566      6.884901960086287
Pt      1.405374727608263      7.302541295672349      6.884901960086287
Pt      4.216124182824790      7.302541295672349      6.884901960086287
Pt      7.026873638041317      7.302541295672349      6.884901960086287
Pt      9.837623093257843      7.302541295672349      6.884901960086287
Pt      1.405374727608263      0.811393477296928      9.179869280115049
Pt      4.216124182824790      0.811393477296928      9.179869280115049
Pt      7.026873638041317      0.811393477296928      9.179869280115049
Pt      9.837623093257843      0.811393477296928      9.179869280115049
Pt      0.000000000000000      3.245573909187711      9.179869280115049
Pt      2.810749455216527      3.245573909187711      9.179869280115049
Pt      5.621498910433053      3.245573909187711      9.179869280115049
Pt      8.432248365649579      3.245573909187711      9.179869280115049
Pt      1.405374727608263      5.679754341078494      9.179869280115049
Pt      4.216124182824790      5.679754341078494      9.179869280115049
Pt      7.026873638041317      5.679754341078494      9.179869280115049
Pt      9.837623093257843      5.679754341078494      9.179869280115049
Pt      0.000000000000000      8.113934772969278      9.179869280115049
Pt      2.810749455216527      8.113934772969278      9.179869280115049
Pt      5.621498910433053      8.113934772969278      9.179869280115049
Pt      8.432248365649579      8.113934772969278      9.179869280115049
Pt      0.000000000000000      1.622786954593855     11.474836600143812
Pt      2.810749455216527      1.622786954593855     11.474836600143812
Pt      5.621498910433053      1.622786954593855     11.474836600143812
Pt      8.432248365649579      1.622786954593855     11.474836600143812
Pt      1.405374727608263      4.056967386484638     11.474836600143812
Pt      4.216124182824790      4.056967386484638     11.474836600143812
Pt      7.026873638041317      4.056967386484638     11.474836600143812
Pt      9.837623093257843      4.056967386484638     11.474836600143812
Pt      0.000000000000000      6.491147818375421     11.474836600143812
Pt      2.810749455216527      6.491147818375421     11.474836600143812
Pt      5.621498910433053      6.491147818375421     11.474836600143812
Pt      8.432248365649579      6.491147818375421     11.474836600143812
Pt      1.405374727608263      8.925328250266205     11.474836600143812
Pt      4.216124182824790      8.925328250266205     11.474836600143812
Pt      7.026873638041317      8.925328250266205     11.474836600143812
Pt      9.837623093257843      8.925328250266205     11.474836600143812
Pt      0.000000000000000      0.000000000000000     13.769803920172574
Pt      2.810749455216527      0.000000000000000     13.769803920172574
Pt      5.621498910433053      0.000000000000000     13.769803920172574
Pt      8.432248365649579      0.000000000000000     13.769803920172574
Pt      1.405374727608263      2.434180431890783     13.769803920172574
Pt      4.216124182824790      2.434180431890783     13.769803920172574
Pt      7.026873638041317      2.434180431890783     13.769803920172574
Pt      9.837623093257843      2.434180431890783     13.769803920172574
Pt      0.000000000000000      4.868360863781566     13.769803920172574
Pt      2.810749455216527      4.868360863781566     13.769803920172574
Pt      5.621498910433053      4.868360863781566     13.769803920172574
Pt      8.432248365649579      4.868360863781566     13.769803920172574
Pt      1.405374727608263      7.302541295672349     13.769803920172574
Pt      4.216124182824790      7.302541295672349     13.769803920172574
Pt      7.026873638041317      7.302541295672349     13.769803920172574
Pt      9.837623093257843      7.302541295672349     13.769803920172574
